CM Short dipole antenna.
CM 
CM 
CM 
CE
SY len=0.1	'Symbol: Antenna length (2l)
GW	1	15	0	0	-len/2	0	0	len/2	.0001	'Wire 1, 9 segments, halve wavelength long.
GE	0
LD	5	1	0	0	9.9E+99	'Wire conductivity
GN	-1
EK
EX	0	1	8	0	1	0	0	'Voltage source (1+j0) at wire 1 segment 5.
FR	0	0	0	0	300	0
EN
