CM 2 lambdas dipole.
CM 
CM 
CM 
CE
SY len=0.5	'Symbol: Antenna length (2l)
GW	1	61	0	0	-len/2	0	0	len/2	.0001	'Wire 1, 9 segments, halve wavelength long.
GE	0
LD	5	1	0	0	58000000	'Wire conductivity
GN	-1
EK
EX	0	1	31	0	1	0	0	'Voltage source (1+j0) at wire 1 segment 5.
FR	0	0	0	0	1200	0
EN
