CM Dipole antenna.
CE
SY len=0.4836	'Symbol: antenna length (2l)
SY d=0.04	'Symbol: distance between folded dipole elements
GW	1	9	0	0	-len/2.	0	0	len/2.	0.001
GW	2	9	d	0	-len/2.	d	0	len/2.	0.001
GW	3	2	0	0	len/2.	d	0	len/2.	0.001
GW	4	2	0	0	-len/2.	d	0	-len/2.	0.001
GE	0
LD	5	0	0	0	58000000	'Copper Elements
GN	-1
EK
EX	0	1	5	0	1	0	0	'SOURCE at middle of GW1
FR	0	0	0	0	300	0
RP	0	1	73	1510	90	0	1	5	0	0
EN
